-------------------------------------------------------
          Amber 21 SANDER                              2021
          -------------------------------------------------------

  [-O]verwriting output

File Assignments:

 Here is the input file:

Production
 &cntrl
  imin=0,
  ntx=5,
  irest=1,
  nstlim=30000,
  dt=0.002,
  ntf=2,
  ntc=2,
  temp0=300.0,
  ntpr=100,
  ntwx=100,
  cut=8.0,
  ntb=2,
  ntp=1,
  ntt=3,
  gamma_ln=2.0,
  ig=-1,
 /

--------------------------------------------------------------------------------
   1.  RESOURCE   USE:
--------------------------------------------------------------------------------

 getting box info from netcdf restart file
 NATOM  =    1806 NTYPES =       2 NBONH =    1805 MBONA  =       0
 NTHETH =       0 MTHETA =       0 NPHIH =       0 MPHIA  =       0
 NHPARM =       0 NPARM  =       0 NNB   =    2408 NRES   =     602
 NBONA  =       0 NTHETA =       0 NPHIA =       0 NUMBND =       2
 NUMANG =       0 NPTRA  =       0 NATYP =       2 NPHB   =       0
 IFBOX  =       1 NMXRS  =       3 IFCAP =       0 NEXTRA =       0
 NCOPY  =       0

     BOX TYPE: RECTILINEAR
Note: ig = -1. Setting random seed to   447138 based on wallclock time in microseconds
      and disabling the synchronization of random numbers between tasks
      to improve performance.

--------------------------------------------------------------------------------
   2.  CONTROL  DATA  FOR  THE  RUN
--------------------------------------------------------------------------------

default_name

General flags:
     imin    =       0, nmropt  =       0

Nature and format of input:
     ntx     =       5, irest   =       1, ntrx    =       1

Nature and format of output:
     ntxo    =       2, ntpr    =     100, ntrx    =       1, ntwr    =   30000
     iwrap   =       0, ntwx    =     100, ntwv    =       0, ntwe    =       0
     ioutfm  =       1, ntwprt  =       0, idecomp =       0, rbornstat=      0

Potential function:
     ntf     =       2, ntb     =       2, igb     =       0, nsnb    =      25
     ipol    =       0, gbsa    =       0, iesp    =       0
     dielc   =   1.00000, cut     =   8.00000, intdiel =   1.00000

Frozen or restrained atoms:
     ibelly  =       0, ntr     =       0

Molecular dynamics:
     nstlim  =     30000, nscm    =      1000, nrespa  =         1
     t       =   0.00000, dt      =   0.00200, vlimit  =  20.00000

Langevin dynamics temperature regulation:
     ig      =  447138
     temp0   = 300.00000, tempi   =   0.00000, gamma_ln=   2.00000

Pressure regulation:
     ntp     =       1
     pres0   =   1.00000, comp    =  44.60000, taup    =   1.00000

SHAKE:
     ntc     =       2, jfastw  =       0
     tol     =   0.00001

Ewald parameters:
     verbose =       0, ew_type =       0, nbflag  =       1, use_pme =       1
     vdwmeth =       1, eedmeth =       1, netfrc  =       1
     Box X =   30.975   Box Y =   30.511   Box Z =   30.276
     Alpha =   90.000   Beta  =   90.000   Gamma =   90.000
     NFFT1 =   30       NFFT2 =   30       NFFT3 =   30
     Cutoff=    8.000   Tol   =0.100E-04
     Ewald Coefficient =  0.34864
     Interpolation order =    4

--------------------------------------------------------------------------------
   3.  ATOMIC COORDINATES AND VELOCITIES
--------------------------------------------------------------------------------

default_name
 begin time read from input coords =    20.000 ps

 Number of triangulated 3-point waters found:      601

     Sum of charges from parm topology file =  -0.00000000
     Forcing neutrality...

--------------------------------------------------------------------------------
   4.  RESULTS
 NSTEP =      100   TIME(PS) =      20.200  TEMP(K) =   294.09  PRESS =   127.6
 Etot   =     -4341.2983  EKtot   =      1055.7598  EPtot      =     -5397.0582
 BOND   =         0.0000  ANGLE   =         0.0000  DIHED      =         0.0000
 1-4 NB =         0.0000  1-4 EEL =         0.0000  VDWAALS    =       891.9604
 EELEC  =     -6289.0186  EHBOND  =         0.0000  RESTRAINT  =         0.0000
 EKCMT  =       555.3221  VIRIAL  =       476.8279  VOLUME     =     28484.2151
                                                    Density    =         0.6323
 Ewald error estimate:   0.3966E-03
 ------------------------------------------------------------------------------

      A V E R A G E S   O V E R   30000 S T E P S

 NSTEP =    30000   TIME(PS) =      80.000  TEMP(K) =   301.21  PRESS =  -166.2
 Etot   =     -4537.0825  EKtot   =      1081.2911  EPtot      =     -5618.3737
 BOND   =         0.0000  ANGLE   =         0.0000  DIHED      =         0.0000
 1-4 NB =         0.0000  1-4 EEL =         0.0000  VDWAALS    =       848.2809
 EELEC  =     -6466.6546  EHBOND  =         0.0000  RESTRAINT  =         0.0000
 EKCMT  =       541.0083  VIRIAL  =       623.8306  VOLUME     =     20618.7480
                                                    Density    =         0.8932
 Ewald error estimate:   0.2235E-03
 ------------------------------------------------------------------------------

      R M S  F L U C T U A T I O N S

 NSTEP =    30000   TIME(PS) =      80.000  TEMP(K) =     6.87  PRESS =   438.9
 Etot   =       136.1632  EKtot   =        24.6634  EPtot      =       130.4123
 BOND   =         0.0000  ANGLE   =         0.0000  DIHED      =         0.0000
 1-4 NB =         0.0000  1-4 EEL =         0.0000  VDWAALS    =        37.0664
 EELEC  =       147.6930  EHBOND  =         0.0000  RESTRAINT  =         0.0000
 EKCMT  =        17.7084  VIRIAL  =       196.9597  VOLUME     =      3298.2531
                                                    Density    =         0.1238
 Ewald error estimate:   0.1669E-03
 ------------------------------------------------------------------------------
